   6
     2.61869      1.42253     17.04872     -7.62781     -2.39879     -5.59959
O   6.63263344957e-02  0.00000000000e+00  3.70017822976e-03
H  -5.26323559596e-01 -7.69239546413e-01 -2.93622584729e-02
H  -5.26323559596e-01  7.69239546413e-01 -2.93622584729e-02
O  -6.63139849331e-02  8.12112093870e-18  2.38130083621e+00
H   4.80887496578e-01 -5.88917333434e-17  3.18418752814e+00
H   5.71563626083e-01 -6.99963565191e-17  1.64838293165e+00
   6
    -2.63248     -3.67354      8.95546     -7.21062     -1.74610     -3.67228
O   6.63465963541e-02  0.00000000000e+00  3.31709493355e-03
H  -5.26484344803e-01 -7.69239546413e-01 -2.63223533491e-02
H  -5.26484344803e-01  7.69239546413e-01 -2.63223533491e-02
O  -6.57733252493e-02  8.05490922358e-18  2.64590263723e+00
H   6.29785116950e-01 -7.71264327623e-17  3.32432356478e+00
H   4.14085343702e-01 -5.07108290738e-17  1.80104042404e+00
