   6
  -3.35408   -4.21569    2.65136   -4.59256   -0.62806   -1.64643
O   6.63713761738e-02  0.00000000000e+00  2.77747931775e-03
H  -5.58841194785e-01  9.44755044560e-03  7.46468602271e-01
H  -4.94520768565e-01 -9.44755044560e-03 -7.90549217078e-01
O  -5.53091751468e-02  3.57455079421e-02  2.91048792936e+00
H   7.01247528930e-02 -7.30912395468e-01  3.49406182382e+00
H   8.07672042691e-01  1.63605212803e-01  2.48273588087e+00
   6
  -0.58529   -1.18000    0.10834   -1.11836   -0.03512   -0.13485
O   6.64009230786e-02  0.00000000000e+00  1.94714685775e-03
H  -5.49462991968e-01 -8.87993450068e-04  7.53457194072e-01
H  -5.04367902227e-01  8.87993450068e-04 -7.84359829444e-01
O  -5.76867978356e-02 -4.88696559854e-03  4.23354333315e+00
H   7.66626879677e-02  1.05368656403e-01  5.18949857004e+00
H   8.38868707197e-01 -2.78089616304e-02  3.85975287053e+00
   6
  -1.58954   -2.59128    9.97049   -6.58864   -1.85416   -4.11897
O   9.32767844239e-04  0.00000000000e+00  6.64229170597e-02
H  -7.40174242981e-03  7.69239546413e-01 -5.27089978863e-01
H  -7.40196097968e-03 -7.69239546413e-01 -5.27089975794e-01
O   3.80849194490e-02 -5.41071691250e-09  2.71204831230e+00
H   3.28047972936e-01 -6.64758392279e-08  1.78469836268e+00
H  -9.32483315964e-01  1.52347847896e-07  2.66672942152e+00
   6
  -3.41057   -4.22663    1.50160   -3.95608   -0.64572   -1.12643
O   1.02480341507e-03  0.00000000000e+00  6.64215608408e-02
H  -8.13218739445e-03 -7.69239546413e-01 -5.27079215239e-01
H  -8.13218739445e-03  7.69239546413e-01 -5.27079215239e-01
O   5.00063185313e-02  0.00000000000e+00  3.24110721018e+00
H  -9.03193326970e-01  0.00000000000e+00  3.42943388718e+00
H   1.09556718773e-01  0.00000000000e+00  2.27130813239e+00
   6
  -1.97383   -2.67731    0.15873   -2.27152   -0.20064   -0.36388
O   8.54446403195e-04  0.00000000000e+00  6.64239707328e-02
H  -6.78034261704e-03  7.69239546413e-01 -5.27098338607e-01
H  -6.78034261704e-03 -7.69239546413e-01 -5.27098338607e-01
O   4.85000974634e-02  0.00000000000e+00  3.77035828203e+00
H   1.40787193005e-01 -9.42046748293e-17  2.80312532485e+00
H  -9.10518978480e-01  9.42046748293e-17  3.92636761967e+00
   6
  -3.82735   -4.75574    4.13096   -5.47473   -1.19940   -2.21257
O   4.81826111496e-02  0.00000000000e+00 -4.57308424302e-02
H   1.47207220530e-01  0.00000000000e+00  9.20835569251e-01
H  -9.11900267529e-01  0.00000000000e+00 -1.95053873212e-01
O  -2.77743519466e-02  4.12040800261e-10  2.86375270453e+00
H   2.20399566050e-01 -7.69239549683e-01  3.40295278098e+00
H   2.20399579361e-01  7.69239543144e-01  3.40295278536e+00
   6
   3.35971    2.14443   17.50010   -7.58621   -1.78587   -5.98359
O   4.19988556509e-02  0.00000000000e+00 -5.14681463683e-02
H  -1.06860168640e-02 -6.46815550615e-01  6.71657326246e-01
H  -6.55866337437e-01  6.46815550615e-01  1.45179551845e-01
O  -5.59487381259e-02 -1.91353606551e-02  2.32773728421e+00
H   6.40783765311e-01  5.59914481789e-01  1.97656553126e+00
H   2.47163359438e-01 -2.56222405007e-01  3.21990839513e+00
   6
  -2.16938   -2.97017    0.39820   -2.35746   -0.23431   -0.77660
O   8.13526330306e-18  0.00000000000e+00 -6.64294661018e-02
H   7.69239546413e-01  0.00000000000e+00  5.27141946357e-01
H  -7.69239546413e-01  0.00000000000e+00  5.27141946357e-01
O   8.13526330306e-18  0.00000000000e+00  3.10863402390e+00
H  -2.05863281974e-16  7.69239546413e-01  3.70220543636e+00
H   7.67507425137e-17 -7.69239546413e-01  3.70220543636e+00
   6
   0.01259   -0.50578   -0.01219   -0.46861   -0.00705   -0.01794
O   8.13526330306e-18  0.00000000000e+00 -6.64294661018e-02
H   7.69239546413e-01  0.00000000000e+00  5.27141946357e-01
H  -7.69239546413e-01  0.00000000000e+00  5.27141946357e-01
O   8.13526330306e-18  0.00000000000e+00  5.75452027390e+00
H  -2.05863281974e-16  7.69239546413e-01  6.34809168636e+00
H   7.67507425137e-17 -7.69239546413e-01  6.34809168636e+00
   6
   0.11160   -0.56680    0.24382   -0.10297   -0.12773   -0.57993
O   7.98003030346e-06  0.00000000000e+00 -6.64294656225e-02
H   7.69176210839e-01 -9.26930773866e-05  5.27234349661e-01
H  -7.69302859718e-01  9.26930773866e-05  5.27049535445e-01
O  -5.75256143559e-02  6.93315038129e-06  3.40619195628e+00
H   8.41186442658e-01 -1.01370766649e-04  3.03690463142e+00
H   7.17868535736e-02 -8.66336732372e-06  4.36917419228e+00
   6
   2.09033    1.04546    4.92425   -1.21101   -0.47179   -2.19599
O   3.32199199884e-02  0.00000000000e+00 -5.75266102124e-02
H  -2.63492037570e-01 -7.69239533912e-01  4.56563902404e-01
H  -2.63732229254e-01  7.69239533912e-01  4.56425198794e-01
O   1.88954794244e-09  3.32095466667e-02  2.58835367075e+00
H  -6.39969065637e-01 -6.33179699304e-01  2.88905529515e+00
H   6.39969035648e-01  1.06120064632e-01  3.31580139647e+00
   6
  -0.74911   -1.50072    0.15849   -1.10944   -0.11349   -0.43628
O   3.32221777926e-02  0.00000000000e+00 -5.75253063381e-02
H  -2.63583863385e-01 -7.69239544564e-01  4.56510877654e-01
H  -2.63676236431e-01  7.69239544564e-01  4.56457530111e-01
O  -2.87583543676e-02  1.66036448402e-02  3.38211824696e+00
H   2.28279974082e-01 -8.70824798623e-01  3.68288153743e+00
H   2.28136004698e-01  6.07312891294e-01  4.10952760619e+00
   6
  -1.40180   -2.12046    0.00156   -1.56508   -0.11408   -0.44285
O   3.32221777926e-02  0.00000000000e+00 -5.75253063381e-02
H  -2.63676236431e-01 -7.69239544564e-01  4.56457530111e-01
H  -2.63583863385e-01  7.69239544564e-01  4.56510877654e-01
O  -2.87583543676e-02 -1.66036448402e-02  3.38211824696e+00
H  -3.48791438682e-01 -2.01313231396e-01  4.28073813047e+00
H   8.05207417461e-01  4.64825138725e-01  3.51167101315e+00
   6
   0.40575   -0.61354    7.97741   -4.07878   -1.15200   -3.36017
O   3.32154280332e-02  0.00000000000e+00 -5.75292039502e-02
H   3.13379180905e-01 -3.84559700248e-01  7.89629936929e-01
H  -8.40532157136e-01  3.84559700248e-01  1.23400328771e-01
O   2.87642006124e-02  1.66070196293e-02  2.58835624367e+00
H  -8.05153379196e-01 -4.64935621094e-01  2.71779602389e+00
H   3.48644616263e-01  2.01370153410e-01  3.48701947621e+00
   6
  -0.48703   -1.49718    7.75763   -4.77228   -1.12099   -3.36154
O   3.32244111187e-02  0.00000000000e+00 -5.75240164835e-02
H   3.13195826911e-01 -3.84679802462e-01  7.89644182501e-01
H  -8.40491371235e-01  3.84679802462e-01  1.23303754333e-01
O  -2.87564192806e-02 -1.66025292500e-02  2.58835109782e+00
H  -3.48827707746e-01 -2.01315714685e-01  3.48695663468e+00
H   8.05212975290e-01  4.64809916787e-01  2.71794124858e+00
   6
  -0.30714   -1.07457    0.37773   -0.68608   -0.15253   -0.61369
O   3.32118122067e-02  0.00000000000e+00 -5.75312914553e-02
H   3.13444986866e-01 -3.84527337351e-01  7.89619578286e-01
H  -8.40540577302e-01  3.84527337351e-01  1.23443817638e-01
O   5.75256133260e-02  3.32216458162e-02  3.43923373521e+00
H  -1.23307293519e-01 -8.40488777368e-01  3.82392329534e+00
H  -7.89665986367e-01  3.13237120403e-01  3.05463754587e+00
   6
  -0.84000   -1.72013    1.67366   -1.87125   -0.43082   -1.09172
O   6.64294643470e-02  0.00000000000e+00  1.52689924496e-05
H  -5.26988812475e-01 -3.84646486397e-01 -6.66286712612e-01
H  -5.27295052388e-01  3.84646486397e-01  6.66044382608e-01
O  -2.87515783507e-02  1.66050596015e-02  2.91685250875e+00
H  -4.11940797053e-01 -5.01289350031e-01  3.64418180459e+00
H   8.68249235521e-01  2.37754989413e-01  3.21774908551e+00
   6
   4.26749    3.37947    1.88541    3.35470   -0.39159   -1.46905
O   6.64294660865e-02  0.00000000000e+00  1.42772423790e-06
H  -5.27127629114e-01 -3.84673206527e-01 -6.66161465547e-01
H  -5.27156263356e-01  3.84673206527e-01  6.66138806526e-01
O   5.75296052487e-02  3.32147329428e-02  2.97397472228e+00
H  -1.23436090325e-01 -8.40469779815e-01  3.35866068595e+00
H  -7.89600544275e-01  3.13327835174e-01  2.58931427307e+00
   6
   4.12155    3.10479    6.03888    0.22534   -0.77658   -2.38285
O   6.64294650222e-02  0.00000000000e+00  1.19762134958e-05
H  -5.27262046251e-01 -3.84559720596e-01  6.66120610140e-01
H  -5.27021829329e-01  3.84559720596e-01 -6.66310681350e-01
O   1.03722391649e-05  3.32095470653e-02  2.58876687191e+00
H  -6.40089830630e-01 -6.33079775938e-01  2.88941079717e+00
H   6.39925215659e-01  1.06020134941e-01  3.31627227596e+00
   6
   2.09531    1.38768   -0.08589    1.90508   -0.13740   -0.29411
O   3.32141987177e-02  0.00000000000e+00  5.75299136981e-02
H   3.13342930068e-01 -3.84665950048e-01 -7.89592569889e-01
H  -8.40476396169e-01  3.84665950048e-01 -1.23448960026e-01
O   2.87663336849e-02  1.66036454468e-02  3.38294854630e+00
H  -8.05217388952e-01 -4.64825155649e-01  3.51238564031e+00
H   3.48674772609e-01  2.01313238694e-01  4.28161280970e+00
